Circuit: * C:\Users\Ric\Desktop\Blast Furnace PCB (without pullups)\Simulation of Level Shifter\5v3v3_Levelshifter.asc

Instance "m:u1:1": Width narrower than recommended for a level 3 MOSFET.
Direct Newton iteration for .op point succeeded.
Ignoring empty pin current: Ix(u1:50)
Ignoring empty pin current: Ix(u1:50)

Date: Wed Mar  4 12:53:10 2020
Total elapsed time: 0.305 seconds.

tnom = 27
temp = 27
method = modified trap
totiter = 12139
traniter = 12112
tranpoints = 4149
accept = 3171
rejected = 978
matrix size = 42
fillins = 13
solver = Normal
Matrix Compiler1: 2.59 KB object code size  1.7/1.4/[0.4]
Matrix Compiler2: off  [1.5]/2.0/2.0

